read_data lammpsIn_N50.dat
  orthogonal box = (-25 -25 -25) to (25 25 25)
  reading atoms ...
  50 atoms
  scanning bonds ...
  reading bonds ...
  50 bonds

# interaction information
neighbor 10.0 bin
neigh_modify once yes
# neigh_modify every 10 one 10000
# bond_style      harmonic
# bond_coeff 1 350 1.53
bond_style      fene
bond_coeff 1 100.0 1.1 720.0 0.9

# pair_style none
# pair_style lj/cut 10.5
# pair_coeff 1 1 0.112 4.01 10.5
pair_style	lj/cut 0.84185
pair_modify	shift yes
pair_coeff	1 1 6.0 0.75

group spb id 1
1 atoms in group spb

fix	1 all langevin 1.0 1.0 1.0 904297
fix 	2 spb spring tether 1000.0 0.0 0.0 0.0 0.0
# fix 	3 all addforce 0.0 0.0 0.0
fix	4 all nve

# output settings
dump 1 all xyz 100000 dump*.dat
thermo          1000000

# run the simulation
timestep	0.001
run		100000000
Step Temp E_pair E_mol TotEng Press
0            0            0    108.79871    108.79871 0.00016978225
Averages over the last 51 of 101 rows, steps 50000000 to 100000000:
Temp E_pair E_mol TotEng Press
1.01385 0.00889616 109.348 110.847 0.000194574
Loop time of 728.934 on 1 procs for 100000000 steps with 50 atoms

Pair  time (%) = 290.983 (39.919)
Bond  time (%) = 114.829 (15.7529)
Neigh time (%) = 0 (0)
Comm  time (%) = 10.6283 (1.45805)
Outpt time (%) = 0.30518 (0.0418667)
Other time (%) = 312.189 (42.8282)

print "All done"
All done
